Version 4
SHEET 1 884 680
WIRE -272 -576 -288 -576
WIRE -208 -576 -208 -592
WIRE -208 -576 -272 -576
WIRE -160 -576 -208 -576
WIRE -128 -576 -160 -576
WIRE 224 -576 160 -576
WIRE 304 -576 224 -576
WIRE 400 -576 304 -576
WIRE 448 -576 400 -576
WIRE 224 -560 224 -576
WIRE -208 -512 -208 -576
WIRE 304 -512 304 -576
WIRE -448 -480 -464 -480
WIRE -352 -480 -352 -576
WIRE -352 -480 -368 -480
WIRE -160 -480 -160 -576
WIRE -128 -480 -160 -480
WIRE 224 -480 160 -480
WIRE -352 -432 -352 -480
WIRE -256 -432 -288 -432
WIRE -640 -416 -688 -416
WIRE -544 -416 -560 -416
WIRE 400 -416 400 -576
WIRE -464 -384 -464 -400
WIRE -208 -384 -208 -448
WIRE -208 -384 -464 -384
WIRE 16 -384 16 -416
WIRE 16 -384 -208 -384
WIRE 224 -384 224 -400
WIRE 224 -384 16 -384
WIRE 304 -384 304 -448
WIRE 304 -384 224 -384
WIRE 352 -384 304 -384
WIRE -464 -368 -464 -384
WIRE 224 -368 224 -384
WIRE 352 -368 352 -384
WIRE 16 -352 16 -384
WIRE -544 -336 -688 -336
WIRE -272 -336 -272 -576
WIRE -272 -336 -288 -336
WIRE -208 -320 -208 -384
WIRE 304 -320 304 -384
WIRE -448 -288 -464 -288
WIRE -352 -288 -352 -336
WIRE -352 -288 -368 -288
WIRE -128 -288 -160 -288
WIRE 224 -288 160 -288
WIRE -352 -176 -352 -288
WIRE -256 -176 -256 -432
WIRE -256 -176 -288 -176
WIRE -208 -176 -208 -256
WIRE -208 -176 -256 -176
WIRE -160 -176 -160 -288
WIRE -160 -176 -208 -176
WIRE -128 -176 -160 -176
WIRE 224 -176 224 -208
WIRE 224 -176 160 -176
WIRE 304 -176 304 -256
WIRE 304 -176 224 -176
WIRE 400 -176 400 -336
WIRE 400 -176 304 -176
WIRE 448 -176 400 -176
WIRE -208 -160 -208 -176
FLAG 448 -576 outh
FLAG 448 -176 outl
FLAG 352 -368 0
FLAG -208 -592 inh
FLAG -208 -160 inl
SYMBOL cap 288 -512 R0
SYMATTR InstName C1
SYMATTR Value 47µ
SYMBOL voltage -688 -432 R0
WINDOW 123 0 0 Left 0
WINDOW 39 24 124 Left 2
WINDOW 3 -35 116 Left 2
SYMATTR Value SINE(0 21.5625 50)
SYMATTR InstName V4
SYMBOL ind2 -560 -320 M180
WINDOW 0 36 80 Left 2
WINDOW 3 36 40 Left 2
SYMATTR InstName L1
SYMATTR Value 1
SYMBOL ind2 -448 -384 R180
WINDOW 0 36 80 Left 2
WINDOW 3 36 40 Left 2
SYMATTR InstName L2
SYMATTR Value 1
SYMBOL ind2 -448 -272 R180
WINDOW 0 36 80 Left 2
WINDOW 3 36 40 Left 2
SYMATTR InstName L3
SYMATTR Value 1
SYMBOL schottky -352 -560 R270
WINDOW 0 32 32 VTop 2
WINDOW 3 0 32 VBottom 2
SYMATTR InstName D2
SYMATTR Value 1N5819
SYMATTR Description Diode
SYMATTR Type diode
SYMBOL schottky -288 -448 R90
WINDOW 0 0 32 VBottom 2
WINDOW 3 32 32 VTop 2
SYMATTR InstName D3
SYMATTR Value 1N5819
SYMATTR Description Diode
SYMATTR Type diode
SYMBOL schottky -352 -320 R270
WINDOW 0 32 32 VTop 2
WINDOW 3 0 32 VBottom 2
SYMATTR InstName D4
SYMATTR Value 1N5819
SYMATTR Description Diode
SYMATTR Type diode
SYMBOL schottky -288 -192 R90
WINDOW 0 0 32 VBottom 2
WINDOW 3 32 32 VTop 2
SYMATTR InstName D5
SYMATTR Value 1N5819
SYMATTR Description Diode
SYMATTR Type diode
SYMBOL cap -224 -320 R0
SYMATTR InstName C2
SYMATTR Value 3300µ
SYMATTR SpiceLine Rser=0.1
SYMBOL cap -224 -512 R0
SYMATTR InstName C3
SYMATTR Value 3300µ
SYMATTR SpiceLine Rser=0.1
SYMBOL res -544 -432 R90
WINDOW 0 0 56 VBottom 2
WINDOW 3 32 56 VTop 2
SYMATTR InstName R5
SYMATTR Value 2.04
SYMBOL res -352 -496 R90
WINDOW 0 0 56 VBottom 2
WINDOW 3 32 56 VTop 2
SYMATTR InstName R6
SYMATTR Value 2.04
SYMBOL res -352 -304 R90
WINDOW 0 0 56 VBottom 2
WINDOW 3 32 56 VTop 2
SYMATTR InstName R7
SYMATTR Value 2.04
SYMBOL bi 400 -416 R0
WINDOW 3 -48 86 Left 2
SYMATTR InstName Load
SYMATTR Value I=max(0, -0.03+0.3*time)
SYMBOL cap 288 -320 R0
SYMATTR InstName C4
SYMATTR Value 47µ
SYMBOL PowerProducts\\LT1963A 16 -528 R0
SYMATTR InstName U1
SYMBOL PowerProducts\\LT3015 16 -240 M180
SYMATTR InstName U2
SYMBOL res 208 -576 R0
SYMATTR InstName R1
SYMATTR Value 10k
SYMBOL res 208 -496 R0
SYMATTR InstName R2
SYMATTR Value 1.25k
SYMBOL res 208 -304 R0
SYMATTR InstName R3
SYMATTR Value 10k
SYMBOL res 208 -384 R0
SYMATTR InstName R4
SYMATTR Value 1.25k
TEXT -688 -144 Left 2 !.tran 1.1
TEXT -584 -264 Left 2 !K L1 L2 L3 1
TEXT -688 -216 Left 2 ;100VAC: Vs=18.75\n115VAC: Vs=21.5625
